
This summary information was generated by ElastoDyn on 11-Jul-2021 at 21:48:22.


Turbine features:

            Upwind, three-bladed rotor with rigid hub.
            The model has 14 of 24 DOFs active (enabled) at start-up.
 Disabled   Platform horizontal surge translation DOF 
 Disabled   Platform horizontal sway translation DOF 
 Disabled   Platform vertical heave translation DOF 
 Disabled   Platform roll tilt rotation DOF 
 Disabled   Platform pitch tilt rotation DOF 
 Disabled   Platform yaw rotation DOF 
 Enabled    1st tower fore-aft bending mode DOF 
 Enabled    1st tower side-to-side bending mode DOF 
 Enabled    2nd tower fore-aft bending mode DOF 
 Enabled    2nd tower side-to-side bending mode DOF 
 Disabled   Nacelle yaw DOF 
 Disabled   Rotor-furl DOF 
 Enabled    Variable speed generator DOF 
 Disabled   Drivetrain rotational-flexibility DOF 
 Disabled   Tail-furl DOF 
 Enabled    1st flapwise bending-mode DOF of blade 1 
 Enabled    1st edgewise bending-mode DOF of blade 1 
 Enabled    2nd flapwise bending-mode DOF of blade 1 
 Enabled    1st flapwise bending-mode DOF of blade 2 
 Enabled    1st edgewise bending-mode DOF of blade 2 
 Enabled    2nd flapwise bending-mode DOF of blade 2 
 Enabled    1st flapwise bending-mode DOF of blade 3 
 Enabled    1st edgewise bending-mode DOF of blade 3 
 Enabled    2nd flapwise bending-mode DOF of blade 3 


Time steps:

    Structural            (s)        0.02500000


Some calculated parameters:

    Hub-Height            (m)           119.005
    Flexible Tower Length (m)           107.000
    Flexible Blade Length (m)            86.400


Rotor mass properties:

    Rotor Mass            (kg)       230717.041
    Rotor Inertia         (kg-m^2)156348032.108
                                        Blade 1      Blade 2      Blade 3
                                        -------      -------      -------
    Mass                  (kg)        41732.347    41732.347    41732.347
    Second Mass Moment    (kg-m^2) 45671254.536 45671254.536 45671254.536
    First Mass Moment     (kg-m)    1090742.547  1090742.547  1090742.547
    Center of Mass        (m)            26.137       26.137       26.137


Additional mass properties:

    Tower-top Mass        (kg)       676723.291
    Tower Mass            (kg)       879381.830
    Platform Mass         (kg)      7781000.000
    Mass Incl. Platform   (kg)      9337105.120


Interpolated tower properties:

Node  TwFract   HNodes  DHNodes  TMassDen    FAStiff    SSStiff
 (-)      (-)      (m)      (m)    (kg/m)     (Nm^2)     (Nm^2)
   1    0.006    0.677    1.354 11111.413  3.733E+12  3.733E+12
   2    0.019    2.032    1.354 11043.977  3.667E+12  3.667E+12
   3    0.032    3.386    1.354 10976.541  3.600E+12  3.600E+12
   4    0.044    4.741    1.354 10909.105  3.534E+12  3.534E+12
   5    0.057    6.095    1.354 10841.669  3.468E+12  3.468E+12
   6    0.070    7.449    1.354 10720.439  3.386E+12  3.386E+12
   7    0.082    8.804    1.354 10653.341  3.324E+12  3.324E+12
   8    0.095   10.158    1.354 10586.243  3.263E+12  3.263E+12
   9    0.108   11.513    1.354 10519.145  3.201E+12  3.201E+12
  10    0.120   12.867    1.354 10452.047  3.139E+12  3.139E+12
  11    0.133   14.222    1.354 10384.949  3.078E+12  3.078E+12
  12    0.146   15.576    1.354 10266.083  3.005E+12  3.005E+12
  13    0.158   16.930    1.354 10199.323  2.947E+12  2.947E+12
  14    0.171   18.285    1.354 10132.562  2.890E+12  2.890E+12
  15    0.184   19.639    1.354 10065.802  2.833E+12  2.833E+12
  16    0.196   20.994    1.354  9999.042  2.775E+12  2.775E+12
  17    0.209   22.348    1.354  9882.202  2.707E+12  2.707E+12
  18    0.222   23.703    1.354  9815.780  2.654E+12  2.654E+12
  19    0.234   25.057    1.354  9749.358  2.601E+12  2.601E+12
  20    0.247   26.411    1.354  9682.936  2.548E+12  2.548E+12
  21    0.259   27.766    1.354  9616.514  2.495E+12  2.495E+12
  22    0.272   29.120    1.354  9501.700  2.431E+12  2.431E+12
  23    0.285   30.475    1.354  9435.616  2.382E+12  2.382E+12
  24    0.297   31.829    1.354  9369.532  2.332E+12  2.332E+12
  25    0.310   33.184    1.354  9303.448  2.283E+12  2.283E+12
  26    0.323   34.538    1.354  9237.364  2.234E+12  2.234E+12
  27    0.335   35.892    1.354  9124.576  2.174E+12  2.174E+12
  28    0.348   37.247    1.354  9058.830  2.129E+12  2.129E+12
  29    0.361   38.601    1.354  8993.084  2.084E+12  2.084E+12
  30    0.373   39.956    1.354  8927.338  2.038E+12  2.038E+12
  31    0.386   41.310    1.354  8861.592  1.993E+12  1.993E+12
  32    0.399   42.665    1.354  8795.846  1.948E+12  1.948E+12
  33    0.411   44.019    1.354  8685.422  1.896E+12  1.896E+12
  34    0.424   45.373    1.354  8620.014  1.854E+12  1.854E+12
  35    0.437   46.728    1.354  8554.606  1.812E+12  1.812E+12
  36    0.449   48.082    1.354  8489.199  1.771E+12  1.771E+12
  37    0.462   49.437    1.354  8423.791  1.729E+12  1.729E+12
  38    0.475   50.791    1.354  8315.392  1.681E+12  1.681E+12
  39    0.487   52.146    1.354  8250.323  1.643E+12  1.643E+12
  40    0.500   53.500    1.354  8185.253  1.604E+12  1.604E+12
  41    0.513   54.854    1.354  8120.183  1.566E+12  1.566E+12
  42    0.525   56.209    1.354  8055.113  1.528E+12  1.528E+12
  43    0.538   57.563    1.354  7948.741  1.483E+12  1.483E+12
  44    0.551   58.918    1.354  7884.009  1.448E+12  1.448E+12
  45    0.563   60.272    1.354  7819.277  1.413E+12  1.413E+12
  46    0.576   61.627    1.354  7754.545  1.379E+12  1.379E+12
  47    0.589   62.981    1.354  7689.813  1.344E+12  1.344E+12
  48    0.601   64.335    1.354  7585.467  1.302E+12  1.302E+12
  49    0.614   65.690    1.354  7521.074  1.271E+12  1.271E+12
  50    0.627   67.044    1.354  7456.680  1.239E+12  1.239E+12
  51    0.639   68.399    1.354  7392.286  1.207E+12  1.207E+12
  52    0.652   69.753    1.354  7327.892  1.175E+12  1.175E+12
  53    0.665   71.108    1.354  7263.498  1.144E+12  1.144E+12
  54    0.677   72.462    1.354  7161.516  1.108E+12  1.108E+12
  55    0.690   73.816    1.354  7097.460  1.080E+12  1.080E+12
  56    0.703   75.171    1.354  7033.404  1.051E+12  1.051E+12
  57    0.715   76.525    1.354  6969.349  1.022E+12  1.022E+12
  58    0.728   77.880    1.354  6905.293  9.933E+11  9.933E+11
  59    0.741   79.234    1.354  6805.337  9.610E+11  9.610E+11
  60    0.753   80.589    1.354  6741.619  9.351E+11  9.351E+11
  61    0.766   81.943    1.354  6677.901  9.091E+11  9.091E+11
  62    0.778   83.297    1.354  6614.183  8.832E+11  8.832E+11
  63    0.791   84.652    1.354  6550.466  8.572E+11  8.572E+11
  64    0.804   86.006    1.354  6452.536  8.277E+11  8.277E+11
  65    0.816   87.361    1.354  6389.156  8.044E+11  8.044E+11
  66    0.829   88.715    1.354  6325.776  7.811E+11  7.811E+11
  67    0.842   90.070    1.354  6262.396  7.579E+11  7.579E+11
  68    0.854   91.424    1.354  6199.017  7.346E+11  7.346E+11
  69    0.867   92.778    1.354  6103.113  7.077E+11  7.077E+11
  70    0.880   94.133    1.354  6040.071  6.869E+11  6.869E+11
  71    0.892   95.487    1.354  5977.029  6.661E+11  6.661E+11
  72    0.905   96.842    1.354  5913.987  6.453E+11  6.453E+11
  73    0.918   98.196    1.354  5850.946  6.246E+11  6.246E+11
  74    0.930   99.551    1.354  5787.904  6.038E+11  6.038E+11
  75    0.943  100.905    1.354  5694.364  5.817E+11  5.817E+11
  76    0.956  102.259    1.354  5631.660  5.633E+11  5.633E+11
  77    0.968  103.614    1.354  5568.957  5.449E+11  5.449E+11
  78    0.981  104.968    1.354  5506.253  5.264E+11  5.264E+11
  79    0.994  106.323    1.354  5443.549  5.080E+11  5.080E+11


Interpolated blade 1 properties:

Node  BlFract   RNodes  DRNodes PitchAxis  StrcTwst  BMassDen    FlpStff    EdgStff
 (-)      (-)      (m)      (m)       (-)     (deg)    (kg/m)     (Nm^2)     (Nm^2)
   1    0.010    3.647    1.694     0.000     0.000  1190.382  6.200E+10  6.106E+10
   2    0.029    5.341    1.694     0.000     0.000  1195.006  6.243E+10  6.112E+10
   3    0.049    7.035    1.694     0.000     0.000  1193.896  6.219E+10  6.026E+10
   4    0.069    8.729    1.694     0.003     0.003  1156.156  5.867E+10  5.675E+10
   5    0.088   10.424    1.694     0.010    10.523  1097.797  5.199E+10  5.251E+10
   6    0.108   12.118    1.694     0.028    41.228  1032.413  4.222E+10  4.930E+10
   7    0.127   13.812    1.694     0.059    33.804   961.007  3.426E+10  4.268E+10
   8    0.147   15.506    1.694     0.095    24.460   901.251  2.732E+10  3.710E+10
   9    0.167   17.200    1.694     0.134    17.993   864.166  2.197E+10  3.336E+10
  10    0.186   18.894    1.694     0.162    13.444   827.752  1.803E+10  3.069E+10
  11    0.206   20.588    1.694     0.179    10.869   773.263  1.468E+10  2.740E+10
  12    0.225   22.282    1.694     0.178     8.839   734.673  1.261E+10  2.532E+10
  13    0.245   23.976    1.694     0.189     7.616   690.942  1.080E+10  2.292E+10
  14    0.265   25.671    1.694     0.200     6.802   655.366  9.354E+09  2.068E+10
  15    0.284   27.365    1.694     0.208     6.113   626.860  8.179E+09  1.883E+10
  16    0.304   29.059    1.694     0.214     4.954   595.059  6.950E+09  1.875E+10
  17    0.324   30.753    1.694     0.215     4.556   581.872  6.151E+09  1.774E+10
  18    0.343   32.447    1.694     0.220     4.276   567.595  5.462E+09  1.662E+10
  19    0.363   34.141    1.694     0.221     4.117   550.259  4.865E+09  1.521E+10
  20    0.382   35.835    1.694     0.223     3.952   532.101  4.332E+09  1.374E+10
  21    0.402   37.529    1.694     0.225     3.692   513.239  3.862E+09  1.260E+10
  22    0.422   39.224    1.694     0.224     3.401   497.354  3.425E+09  1.164E+10
  23    0.441   40.918    1.694     0.225     3.140   480.791  3.031E+09  1.064E+10
  24    0.461   42.612    1.694     0.224     2.924   463.729  2.675E+09  9.632E+09
  25    0.480   44.306    1.694     0.224     2.693   445.233  2.354E+09  8.677E+09
  26    0.500   46.000    1.694     0.224     2.458   428.620  2.071E+09  7.864E+09
  27    0.520   47.694    1.694     0.223     2.293   406.630  1.813E+09  6.877E+09
  28    0.539   49.388    1.694     0.223     2.100   389.023  1.588E+09  6.134E+09
  29    0.559   51.082    1.694     0.223     1.909   370.917  1.395E+09  5.496E+09
  30    0.578   52.776    1.694     0.223     1.744   352.226  1.218E+09  4.853E+09
  31    0.598   54.471    1.694     0.222     1.606   333.152  1.066E+09  4.216E+09
  32    0.618   56.165    1.694     0.222     1.471   316.171  9.331E+08  3.706E+09
  33    0.637   57.859    1.694     0.222     1.340   298.867  8.156E+08  3.240E+09
  34    0.657   59.553    1.694     0.221     1.231   280.254  7.103E+08  2.792E+09
  35    0.676   61.247    1.694     0.220     1.138   263.552  6.166E+08  2.418E+09
  36    0.696   62.941    1.694     0.220     1.045   246.326  5.346E+08  2.078E+09
  37    0.716   64.635    1.694     0.219     0.956   228.906  4.605E+08  1.780E+09
  38    0.735   66.329    1.694     0.217     0.892   211.525  3.929E+08  1.516E+09
  39    0.755   68.024    1.694     0.216     0.822   194.454  3.322E+08  1.282E+09
  40    0.775   69.718    1.694     0.215     0.760   179.041  2.788E+08  1.089E+09
  41    0.794   71.412    1.694     0.215     0.707   163.157  2.322E+08  9.109E+08
  42    0.814   73.106    1.694     0.214     0.661   147.773  1.920E+08  7.583E+08
  43    0.833   74.800    1.694     0.212     0.629   133.508  1.573E+08  6.304E+08
  44    0.853   76.494    1.694     0.210     0.588   118.051  1.261E+08  5.159E+08
  45    0.873   78.188    1.694     0.208     0.558   103.355  9.867E+07  4.195E+08
  46    0.892   79.882    1.694     0.206     0.551    90.360  7.610E+07  3.354E+08
  47    0.912   81.576    1.694     0.203     0.563    77.585  5.671E+07  2.694E+08
  48    0.931   83.271    1.694     0.201     0.563    63.780  3.908E+07  1.969E+08
  49    0.951   84.965    1.694     0.199     0.621    50.126  2.398E+07  1.378E+08
  50    0.971   86.659    1.694     0.196     0.718    36.336  1.169E+07  8.399E+07
  51    0.990   88.353    1.694     0.203     0.849    21.820  3.297E+06  3.168E+07


Interpolated blade 2 properties:

Node  BlFract   RNodes  DRNodes PitchAxis  StrcTwst  BMassDen    FlpStff    EdgStff
 (-)      (-)      (m)      (m)       (-)     (deg)    (kg/m)     (Nm^2)     (Nm^2)
   1    0.010    3.647    1.694     0.000     0.000  1190.382  6.200E+10  6.106E+10
   2    0.029    5.341    1.694     0.000     0.000  1195.006  6.243E+10  6.112E+10
   3    0.049    7.035    1.694     0.000     0.000  1193.896  6.219E+10  6.026E+10
   4    0.069    8.729    1.694     0.003     0.003  1156.156  5.867E+10  5.675E+10
   5    0.088   10.424    1.694     0.010    10.523  1097.797  5.199E+10  5.251E+10
   6    0.108   12.118    1.694     0.028    41.228  1032.413  4.222E+10  4.930E+10
   7    0.127   13.812    1.694     0.059    33.804   961.007  3.426E+10  4.268E+10
   8    0.147   15.506    1.694     0.095    24.460   901.251  2.732E+10  3.710E+10
   9    0.167   17.200    1.694     0.134    17.993   864.166  2.197E+10  3.336E+10
  10    0.186   18.894    1.694     0.162    13.444   827.752  1.803E+10  3.069E+10
  11    0.206   20.588    1.694     0.179    10.869   773.263  1.468E+10  2.740E+10
  12    0.225   22.282    1.694     0.178     8.839   734.673  1.261E+10  2.532E+10
  13    0.245   23.976    1.694     0.189     7.616   690.942  1.080E+10  2.292E+10
  14    0.265   25.671    1.694     0.200     6.802   655.366  9.354E+09  2.068E+10
  15    0.284   27.365    1.694     0.208     6.113   626.860  8.179E+09  1.883E+10
  16    0.304   29.059    1.694     0.214     4.954   595.059  6.950E+09  1.875E+10
  17    0.324   30.753    1.694     0.215     4.556   581.872  6.151E+09  1.774E+10
  18    0.343   32.447    1.694     0.220     4.276   567.595  5.462E+09  1.662E+10
  19    0.363   34.141    1.694     0.221     4.117   550.259  4.865E+09  1.521E+10
  20    0.382   35.835    1.694     0.223     3.952   532.101  4.332E+09  1.374E+10
  21    0.402   37.529    1.694     0.225     3.692   513.239  3.862E+09  1.260E+10
  22    0.422   39.224    1.694     0.224     3.401   497.354  3.425E+09  1.164E+10
  23    0.441   40.918    1.694     0.225     3.140   480.791  3.031E+09  1.064E+10
  24    0.461   42.612    1.694     0.224     2.924   463.729  2.675E+09  9.632E+09
  25    0.480   44.306    1.694     0.224     2.693   445.233  2.354E+09  8.677E+09
  26    0.500   46.000    1.694     0.224     2.458   428.620  2.071E+09  7.864E+09
  27    0.520   47.694    1.694     0.223     2.293   406.630  1.813E+09  6.877E+09
  28    0.539   49.388    1.694     0.223     2.100   389.023  1.588E+09  6.134E+09
  29    0.559   51.082    1.694     0.223     1.909   370.917  1.395E+09  5.496E+09
  30    0.578   52.776    1.694     0.223     1.744   352.226  1.218E+09  4.853E+09
  31    0.598   54.471    1.694     0.222     1.606   333.152  1.066E+09  4.216E+09
  32    0.618   56.165    1.694     0.222     1.471   316.171  9.331E+08  3.706E+09
  33    0.637   57.859    1.694     0.222     1.340   298.867  8.156E+08  3.240E+09
  34    0.657   59.553    1.694     0.221     1.231   280.254  7.103E+08  2.792E+09
  35    0.676   61.247    1.694     0.220     1.138   263.552  6.166E+08  2.418E+09
  36    0.696   62.941    1.694     0.220     1.045   246.326  5.346E+08  2.078E+09
  37    0.716   64.635    1.694     0.219     0.956   228.906  4.605E+08  1.780E+09
  38    0.735   66.329    1.694     0.217     0.892   211.525  3.929E+08  1.516E+09
  39    0.755   68.024    1.694     0.216     0.822   194.454  3.322E+08  1.282E+09
  40    0.775   69.718    1.694     0.215     0.760   179.041  2.788E+08  1.089E+09
  41    0.794   71.412    1.694     0.215     0.707   163.157  2.322E+08  9.109E+08
  42    0.814   73.106    1.694     0.214     0.661   147.773  1.920E+08  7.583E+08
  43    0.833   74.800    1.694     0.212     0.629   133.508  1.573E+08  6.304E+08
  44    0.853   76.494    1.694     0.210     0.588   118.051  1.261E+08  5.159E+08
  45    0.873   78.188    1.694     0.208     0.558   103.355  9.867E+07  4.195E+08
  46    0.892   79.882    1.694     0.206     0.551    90.360  7.610E+07  3.354E+08
  47    0.912   81.576    1.694     0.203     0.563    77.585  5.671E+07  2.694E+08
  48    0.931   83.271    1.694     0.201     0.563    63.780  3.908E+07  1.969E+08
  49    0.951   84.965    1.694     0.199     0.621    50.126  2.398E+07  1.378E+08
  50    0.971   86.659    1.694     0.196     0.718    36.336  1.169E+07  8.399E+07
  51    0.990   88.353    1.694     0.203     0.849    21.820  3.297E+06  3.168E+07


Interpolated blade 3 properties:

Node  BlFract   RNodes  DRNodes PitchAxis  StrcTwst  BMassDen    FlpStff    EdgStff
 (-)      (-)      (m)      (m)       (-)     (deg)    (kg/m)     (Nm^2)     (Nm^2)
   1    0.010    3.647    1.694     0.000     0.000  1190.382  6.200E+10  6.106E+10
   2    0.029    5.341    1.694     0.000     0.000  1195.006  6.243E+10  6.112E+10
   3    0.049    7.035    1.694     0.000     0.000  1193.896  6.219E+10  6.026E+10
   4    0.069    8.729    1.694     0.003     0.003  1156.156  5.867E+10  5.675E+10
   5    0.088   10.424    1.694     0.010    10.523  1097.797  5.199E+10  5.251E+10
   6    0.108   12.118    1.694     0.028    41.228  1032.413  4.222E+10  4.930E+10
   7    0.127   13.812    1.694     0.059    33.804   961.007  3.426E+10  4.268E+10
   8    0.147   15.506    1.694     0.095    24.460   901.251  2.732E+10  3.710E+10
   9    0.167   17.200    1.694     0.134    17.993   864.166  2.197E+10  3.336E+10
  10    0.186   18.894    1.694     0.162    13.444   827.752  1.803E+10  3.069E+10
  11    0.206   20.588    1.694     0.179    10.869   773.263  1.468E+10  2.740E+10
  12    0.225   22.282    1.694     0.178     8.839   734.673  1.261E+10  2.532E+10
  13    0.245   23.976    1.694     0.189     7.616   690.942  1.080E+10  2.292E+10
  14    0.265   25.671    1.694     0.200     6.802   655.366  9.354E+09  2.068E+10
  15    0.284   27.365    1.694     0.208     6.113   626.860  8.179E+09  1.883E+10
  16    0.304   29.059    1.694     0.214     4.954   595.059  6.950E+09  1.875E+10
  17    0.324   30.753    1.694     0.215     4.556   581.872  6.151E+09  1.774E+10
  18    0.343   32.447    1.694     0.220     4.276   567.595  5.462E+09  1.662E+10
  19    0.363   34.141    1.694     0.221     4.117   550.259  4.865E+09  1.521E+10
  20    0.382   35.835    1.694     0.223     3.952   532.101  4.332E+09  1.374E+10
  21    0.402   37.529    1.694     0.225     3.692   513.239  3.862E+09  1.260E+10
  22    0.422   39.224    1.694     0.224     3.401   497.354  3.425E+09  1.164E+10
  23    0.441   40.918    1.694     0.225     3.140   480.791  3.031E+09  1.064E+10
  24    0.461   42.612    1.694     0.224     2.924   463.729  2.675E+09  9.632E+09
  25    0.480   44.306    1.694     0.224     2.693   445.233  2.354E+09  8.677E+09
  26    0.500   46.000    1.694     0.224     2.458   428.620  2.071E+09  7.864E+09
  27    0.520   47.694    1.694     0.223     2.293   406.630  1.813E+09  6.877E+09
  28    0.539   49.388    1.694     0.223     2.100   389.023  1.588E+09  6.134E+09
  29    0.559   51.082    1.694     0.223     1.909   370.917  1.395E+09  5.496E+09
  30    0.578   52.776    1.694     0.223     1.744   352.226  1.218E+09  4.853E+09
  31    0.598   54.471    1.694     0.222     1.606   333.152  1.066E+09  4.216E+09
  32    0.618   56.165    1.694     0.222     1.471   316.171  9.331E+08  3.706E+09
  33    0.637   57.859    1.694     0.222     1.340   298.867  8.156E+08  3.240E+09
  34    0.657   59.553    1.694     0.221     1.231   280.254  7.103E+08  2.792E+09
  35    0.676   61.247    1.694     0.220     1.138   263.552  6.166E+08  2.418E+09
  36    0.696   62.941    1.694     0.220     1.045   246.326  5.346E+08  2.078E+09
  37    0.716   64.635    1.694     0.219     0.956   228.906  4.605E+08  1.780E+09
  38    0.735   66.329    1.694     0.217     0.892   211.525  3.929E+08  1.516E+09
  39    0.755   68.024    1.694     0.216     0.822   194.454  3.322E+08  1.282E+09
  40    0.775   69.718    1.694     0.215     0.760   179.041  2.788E+08  1.089E+09
  41    0.794   71.412    1.694     0.215     0.707   163.157  2.322E+08  9.109E+08
  42    0.814   73.106    1.694     0.214     0.661   147.773  1.920E+08  7.583E+08
  43    0.833   74.800    1.694     0.212     0.629   133.508  1.573E+08  6.304E+08
  44    0.853   76.494    1.694     0.210     0.588   118.051  1.261E+08  5.159E+08
  45    0.873   78.188    1.694     0.208     0.558   103.355  9.867E+07  4.195E+08
  46    0.892   79.882    1.694     0.206     0.551    90.360  7.610E+07  3.354E+08
  47    0.912   81.576    1.694     0.203     0.563    77.585  5.671E+07  2.694E+08
  48    0.931   83.271    1.694     0.201     0.563    63.780  3.908E+07  1.969E+08
  49    0.951   84.965    1.694     0.199     0.621    50.126  2.398E+07  1.378E+08
  50    0.971   86.659    1.694     0.196     0.718    36.336  1.169E+07  8.399E+07
  51    0.990   88.353    1.694     0.203     0.849    21.820  3.297E+06  3.168E+07


Requested Outputs:


 Col   Parameter            Units               
 ---   ---------------      ---------------     
   0   Time                 (s)                 
   1   TipDxc1              (m)                 
   2   TipDyc1              (m)                 
   3   TipDxc2              (m)                 
   4   TipDyc2              (m)                 
   5   TipDxc3              (m)                 
   6   TipDyc3              (m)                 
   7   BldPitch1            (deg)               
   8   BldPitch2            (deg)               
   9   BldPitch3            (deg)               
  10   PtfmSurge            (m)                 
  11   PtfmSway             (m)                 
  12   PtfmHeave            (m)                 
  13   PtfmRoll             (deg)               
  14   PtfmPitch            (deg)               
  15   PtfmYaw              (deg)               
  16   Azimuth              (deg)               
  17   rotspeed             (rpm)               
  18   RotAccel             (deg/s^2)           
  19   LSSGagP              (deg)               
  20   LSSGagV              (rpm)               
  21   LSSGagA              (deg/s^2)           
  22   GenSpeed             (rpm)               
  23   GenAccel             (deg/s^2)           
  24   YawPos               (deg)               
  25   YawRate              (deg/s)             
  26   YawAccel             (deg/s^2)           
  27   YawBrTDxp            (m)                 
  28   YawBrTDyp            (m)                 
  29   YawBrTDzp            (m)                 
  30   YawBrTDxt            (m)                 
  31   YawBrTDyt            (m)                 
  32   YawBrTDzt            (m)                 
  33   YawBrTAxp            (m/s^2)             
  34   YawBrTAyp            (m/s^2)             
  35   YawBrTAzp            (m/s^2)             
  36   RootFxc1             (kN)                
  37   RootFyc1             (kN)                
  38   RootFzc1             (kN)                
  39   RootFxb1             (kN)                
  40   RootFyb1             (kN)                
  41   RootMxc1             (kN-m)              
  42   RootMyc1             (kN-m)              
  43   RootMzc1             (kN-m)              
  44   RootMxb1             (kN-m)              
  45   RootMyb1             (kN-m)              
  46   RootFxc2             (kN)                
  47   RootFyc2             (kN)                
  48   RootFzc2             (kN)                
  49   RootFxb2             (kN)                
  50   RootFyb2             (kN)                
  51   RootMxc2             (kN-m)              
  52   RootMyc2             (kN-m)              
  53   RootMzc2             (kN-m)              
  54   RootMxb2             (kN-m)              
  55   RootMyb2             (kN-m)              
  56   RootFxc3             (kN)                
  57   RootFyc3             (kN)                
  58   RootFzc3             (kN)                
  59   RootFxb3             (kN)                
  60   RootFyb3             (kN)                
  61   RootMxc3             (kN-m)              
  62   RootMyc3             (kN-m)              
  63   RootMzc3             (kN-m)              
  64   RootMxb3             (kN-m)              
  65   RootMyb3             (kN-m)              
  66   RotThrust            (kN)                
  67   RotTorq              (kN-m)              
  68   RotPwr               (kW)                
  69   LSShftFya            (kN)                
  70   LSShftFza            (kN)                
  71   LSShftFys            (kN)                
  72   LSShftFzs            (kN)                
  73   LSShftTq             (kN-m)              
  74   LSSTipMya            (kN-m)              
  75   LSSTipMza            (kN-m)              
  76   LSSTipMys            (kN-m)              
  77   LSSTipMzs            (kN-m)              
  78   LSSGagMya            (kN-m)              
  79   LSSGagMza            (kN-m)              
  80   LSSGagMys            (kN-m)              
  81   LSSGagMzs            (kN-m)              
  82   HSShftTq             (kN-m)              
  83   HSShftPwr            (kW)                
  84   HSSBrTq              (kN-m)              
  85   YawBrFxn             (kN)                
  86   YawBrFyn             (kN)                
  87   YawBrFzn             (kN)                
  88   YawBrFxp             (kN)                
  89   YawBrFyp             (kN)                
  90   YawBrMxn             (kN-m)              
  91   YawBrMyn             (kN-m)              
  92   YawBrMzn             (kN-m)              
  93   YawBrMxp             (kN-m)              
  94   YawBrMyp             (kN-m)              
  95   TwrBsFxt             (kN)                
  96   TwrBsFyt             (kN)                
  97   TwrBsFzt             (kN)                
  98   TwrBsMxt             (kN-m)              
  99   TwrBsMyt             (kN-m)              
 100   TwrBsMzt             (kN-m)              
 101   NcIMUTAxs            (m/s^2)             
 102   NcIMUTAys            (m/s^2)             


  Requested Output Channels at each blade station:
 Col   Parameter            Units               
 ---   ---------------      ---------------     
